
[TITLE]
;;Project Title/Notes
Scenario Run: Base

[OPTIONS]
;;Option        Value
FLOW_UNITS        CMS
INFILTRATION        CURVE_NUMBER
FLOW_ROUTING        KINWAVE
START_DATE        01/01/2012
START_TIME        00:00:00
END_DATE        01/08/2016
END_TIME        00:00:00
REPORT_START_DATE        01/01/2012
REPORT_START_TIME        00:00:00
SWEEP_START        01/01
SWEEP_END        12/31
DRY_DAYS        5
WET_STEP        00:05:00
DRY_STEP        00:05:00
ROUTING_STEP        00:05:00
REPORT_STEP        00:15:00
RULE_STEP        00:00:00
ALLOW_PONDING        NO
INERTIAL_DAMPING        PARTIAL
VARIABLE_STEP        0.75
NORMAL_FLOW_LIMITED        BOTH
LENGTHENING_STEP        0
MIN_SURFAREA        0.1
COMPATIBILITY        
SKIP_STEADY_STATE        No
TEMPDIR        
IGNORE_RAINFALL        No
FORCE_MAIN_EQUATION        H-W
LINK_OFFSETS        DEPTH
MIN_SLOPE        0.1
IGNORE_SNOWMELT        No
IGNORE_GROUNDWATER        No
IGNORE_ROUTING        No
IGNORE_QUALITY        No
MAX_TRIALS        10
HEAD_TOLERANCE        0.05
SYS_FLOW_TOL        5
LAT_FLOW_TOL        5
IGNORE_RDII        No
MINIMUM_STEP        0.5
THREADS        6
SURCHARGE_METHOD        EXTRAN

[FILES]
;;Action        FileType        FileName
SAVE        HOTSTART        hotstart.hsf

[RAINGAGES]
;;Name        RainType        TimeIntrvl        SnowCatch        DataSource        DataSourceName        StationID        Units
HY006        INTENSITY        00:15        0        FILE        precipitation.dat        HY006        mm

[SUBCATCHMENTS]
;;Name        Raingage        Outlet        Area        PercImperv        Width        PercSlope        CurbLength        SnowPack
s0        HY006        node0        127.0        2.3622        11.2694        4.8047        0        
s1        HY006        node1        266.0        0.7519        16.3095        6.2236        0        
s2        HY006        node2        110.0        3.6364        10.4881        3.9197        0        
s3        HY006        node3        241.0        5.8091        15.5242        6.3        0        
s4        HY006        node4        126.0        2.381        11.225        7.5508        0        
s5        HY006        node5        280.0        2.1429        16.7332        6.8677        0        
s6        HY006        node6        106.0        0.9434        10.2956        7.174        0        
s7        HY006        node7        315.0        2.5397        17.7482        6.7935        0        
s8        HY006        node8        102.0        0.9804        10.0995        6.6689        0        
s9        HY006        node9        71.0        8.4507        8.4261        8.8301        0        
s10        HY006        node10        136.0        2.2059        11.6619        4.1639        0        
s11        HY006        node11        632.0        1.7405        25.1396        7.8842        0        
s12        HY006        node12        105.0        0.9524        10.247        6.9742        0        
s13        HY006        node13        209.0        2.3923        14.4568        6.042        0        
s14        HY006        node14        102.0        6.8627        10.0995        5.6803        0        
s15        HY006        node15        36.0        5.5556        6.0        3.9486        0        
s16        HY006        node16        108.0        8.3333        10.3923        4.0845        0        
s17        HY006        node17        163.0        13.4969        12.7671        5.6126        0        
s18        HY006        node18        141.0        17.7305        11.8743        3.0082        0        
s19        HY006        node19        359.0        20.6704        18.9473        8.9174        0        
s20        HY006        node20        117.0        7.6923        10.8167        10.2367        0        
s21        HY006        node21        5222.0        6.9322        72.2634        6.8045        0        
s22        HY006        node22        150.0        37.3333        12.2474        5.4932        0        
s23        HY006        node23        262.0        18.7023        16.1864        7.5955        0        
s24        HY006        node24        102.0        1.9608        10.0995        7.6082        0        
s25        HY006        node25        161.0        6.8323        12.6886        7.7528        0        
s26        HY006        node26        196.0        4.5918        14.0        10.9574        0        
s27        HY006        node27        129.0        4.6512        11.3578        10.4938        0        
s28        HY006        node28        120.0        1.6667        10.9545        6.8194        0        
s29        HY006        node29        240.0        4.5833        15.4919        6.6606        0        
s30        HY006        node30        102.0        5.8824        10.0995        9.5427        0        
s31        HY006        node31        249.0        2.008        15.7797        8.5001        0        
s32        HY006        node32        101.0        12.8713        10.0499        9.5043        0        
s33        HY006        node33        413.0        18.6441        20.3224        7.7785        0        
s34        HY006        node34        174.0        1.7241        13.1909        4.8026        0        
s35        HY006        node35        527.0        17.8368        22.9565        6.7966        0        
s36        HY006        node36        104.0        0.9615        10.198        7.2723        0        
s37        HY006        node37        29.0        3.4483        5.3852        8.3433        0        
s38        HY006        node38        117.0        3.4188        10.8167        10.6022        0        
s39        HY006        node39        61.0        1.6393        7.8102        8.4132        0        
s40        HY006        node40        103.0        0.0        10.1489        7.9445        0        
s41        HY006        node41        674.0        1.7804        25.9615        8.1508        0        
s42        HY006        node42        107.0        3.7383        10.3441        7.4734        0        
s43        HY006        node43        538.0        3.7175        23.1948        7.4949        0        
s44        HY006        node44        101.0        1.9802        10.0499        3.8746        0        
s45        HY006        node45        304.0        10.1974        17.4356        7.0709        0        
s46        HY006        node46        107.0        3.7383        10.3441        9.1483        0        
s47        HY006        node47        461.0        19.9566        21.4709        7.5469        0        
s48        HY006        node48        105.0        24.7619        10.247        7.3407        0        
s49        HY006        node49        403.0        5.4591        20.0749        9.8195        0        
s50        HY006        node50        103.0        6.7961        10.1489        4.8947        0        
s51        HY006        node51        285.0        2.4561        16.8819        5.3202        0        
s52        HY006        node52        109.0        0.9174        10.4403        12.3826        0        
s53        HY006        node53        386.0        1.2953        19.6469        8.685        0        
s54        HY006        node54        142.0        43.662        11.9164        6.1104        0        
s55        HY006        node55        333.0        4.2042        18.2483        5.9027        0        
s56        HY006        node56        104.0        0.0        10.198        4.1916        0        
s57        HY006        node57        55.0        9.0909        7.4162        4.4881        0        
s58        HY006        node58        104.0        42.3077        10.198        7.176        0        
s59        HY006        node59        161.0        5.5901        12.6886        9.5334        0        
s60        HY006        node60        110.0        2.7273        10.4881        5.0972        0        
s61        HY006        node61        103.0        4.8544        10.1489        6.6535        0        
s62        HY006        node62        119.0        4.2017        10.9087        3.0836        0        
s63        HY006        node63        434.0        3.9171        20.8327        9.0622        0        
s64        HY006        node64        106.0        0.9434        10.2956        7.8148        0        
s65        HY006        node65        337.0        5.638        18.3576        9.3019        0        
s66        HY006        node66        108.0        12.963        10.3923        5.7433        0        
s67        HY006        node67        513.0        4.4834        22.6495        5.7017        0        
s68        HY006        node68        117.0        2.5641        10.8167        7.1619        0        
s69        HY006        node69        249.0        2.008        15.7797        7.5605        0        
s70        HY006        node70        140.0        5.0        11.8322        9.4445        0        
s71        HY006        node71        12361.0        7.4359        111.18        7.3026        0        
s72        HY006        node72        115.0        23.4783        10.7238        6.1574        0        
s73        HY006        node73        139.0        19.4245        11.7898        7.8282        0        
s74        HY006        node74        118.0        3.3898        10.8628        4.7628        0        
s75        HY006        node75        106.0        0.0        10.2956        7.5634        0        
s76        HY006        node76        75.0        12.0        8.6603        11.4801        0        
s77        HY006        node77        108.0        3.7037        10.3923        9.9431        0        
s78        HY006        node78        61.0        9.8361        7.8102        6.5807        0        
s79        HY006        node79        160.0        8.75        12.6491        5.9889        0        
s80        HY006        node80        173.0        6.3584        13.1529        6.8632        0        
s81        HY006        node81        118.0        4.2373        10.8628        7.2117        0        
s82        HY006        node82        131.0        0.7634        11.4455        7.3359        0        
s83        HY006        node83        136.0        0.0        11.6619        8.9404        0        
s84        HY006        node84        493.0        1.6227        22.2036        8.2069        0        
s85        HY006        node85        115.0        5.2174        10.7238        3.8383        0        
s86        HY006        node86        408.0        1.9608        20.199        7.5103        0        
s87        HY006        node87        116.0        1.7241        10.7703        6.7152        0        
s88        HY006        node88        276.0        3.6232        16.6132        8.0583        0        
s89        HY006        node89        102.0        8.8235        10.0995        4.432        0        
s90        HY006        node90        180.0        6.1111        13.4164        9.543        0        
s91        HY006        node91        125.0        7.2        11.1803        6.4567        0        
s92        HY006        node92        1036.0        2.3166        32.187        7.5253        0        
s93        HY006        node93        107.0        0.0        10.3441        4.6606        0        
s94        HY006        node94        678.0        25.5162        26.0384        7.2602        0        
s95        HY006        node95        116.0        0.0        10.7703        5.3089        0        
s96        HY006        node96        348.0        3.1609        18.6548        7.3214        0        
s97        HY006        node97        103.0        10.6796        10.1489        5.719        0        
s98        HY006        node98        139.0        41.7266        11.7898        5.0055        0        
s99        HY006        node99        108.0        11.1111        10.3923        9.0898        0        
s100        HY006        node100        212.0        55.6604        14.5602        6.4486        0        
s101        HY006        node101        143.0        90.2098        11.9583        4.15        0        
s102        HY006        node102        159.0        56.6038        12.6095        8.5309        0        
s103        HY006        node103        103.0        7.767        10.1489        5.0232        0        
s104        HY006        node104        521.0        5.3743        22.8254        7.1359        0        
s105        HY006        node105        103.0        19.4175        10.1489        5.6453        0        
s106        HY006        node106        65.0        6.1538        8.0623        7.3814        0        
s107        HY006        node107        103.0        4.8544        10.1489        5.6544        0        
s108        HY006        node108        12.0        33.3333        3.4641        8.5285        0        
s109        HY006        node109        105.0        14.2857        10.247        9.1066        0        
s110        HY006        node110        644.0        24.0683        25.3772        6.9208        0        
s111        HY006        node111        144.0        10.4167        12.0        6.8721        0        
s112        HY006        node112        151.0        80.1325        12.2882        7.6916        0        

[SUBAREAS]
;;Name        N-Imperv        N-Perv        S-Imperv        S-Perv        PctZero        RouteTo        PctRouted
s0        0.01        0.01        0        0        25        OUTLET        0
s1        0.01        0.01        0        0        25        OUTLET        0
s2        0.01        0.01        0        0        25        OUTLET        0
s3        0.01        0.01        0        0        25        OUTLET        0
s4        0.01        0.01        0        0        25        OUTLET        0
s5        0.01        0.01        0        0        25        OUTLET        0
s6        0.01        0.01        0        0        25        OUTLET        0
s7        0.01        0.01        0        0        25        OUTLET        0
s8        0.01        0.01        0        0        25        OUTLET        0
s9        0.01        0.01        0        0        25        OUTLET        0
s10        0.01        0.01        0        0        25        OUTLET        0
s11        0.01        0.01        0        0        25        OUTLET        0
s12        0.01        0.01        0        0        25        OUTLET        0
s13        0.01        0.01        0        0        25        OUTLET        0
s14        0.01        0.01        0        0        25        OUTLET        0
s15        0.01        0.01        0        0        25        OUTLET        0
s16        0.01        0.01        0        0        25        OUTLET        0
s17        0.01        0.01        0        0        25        OUTLET        0
s18        0.01        0.01        0        0        25        OUTLET        0
s19        0.01        0.01        0        0        25        OUTLET        0
s20        0.01        0.01        0        0        25        OUTLET        0
s21        0.01        0.01        0        0        25        OUTLET        0
s22        0.01        0.01        0        0        25        OUTLET        0
s23        0.01        0.01        0        0        25        OUTLET        0
s24        0.01        0.01        0        0        25        OUTLET        0
s25        0.01        0.01        0        0        25        OUTLET        0
s26        0.01        0.01        0        0        25        OUTLET        0
s27        0.01        0.01        0        0        25        OUTLET        0
s28        0.01        0.01        0        0        25        OUTLET        0
s29        0.01        0.01        0        0        25        OUTLET        0
s30        0.01        0.01        0        0        25        OUTLET        0
s31        0.01        0.01        0        0        25        OUTLET        0
s32        0.01        0.01        0        0        25        OUTLET        0
s33        0.01        0.01        0        0        25        OUTLET        0
s34        0.01        0.01        0        0        25        OUTLET        0
s35        0.01        0.01        0        0        25        OUTLET        0
s36        0.01        0.01        0        0        25        OUTLET        0
s37        0.01        0.01        0        0        25        OUTLET        0
s38        0.01        0.01        0        0        25        OUTLET        0
s39        0.01        0.01        0        0        25        OUTLET        0
s40        0.01        0.01        0        0        25        OUTLET        0
s41        0.01        0.01        0        0        25        OUTLET        0
s42        0.01        0.01        0        0        25        OUTLET        0
s43        0.01        0.01        0        0        25        OUTLET        0
s44        0.01        0.01        0        0        25        OUTLET        0
s45        0.01        0.01        0        0        25        OUTLET        0
s46        0.01        0.01        0        0        25        OUTLET        0
s47        0.01        0.01        0        0        25        OUTLET        0
s48        0.01        0.01        0        0        25        OUTLET        0
s49        0.01        0.01        0        0        25        OUTLET        0
s50        0.01        0.01        0        0        25        OUTLET        0
s51        0.01        0.01        0        0        25        OUTLET        0
s52        0.01        0.01        0        0        25        OUTLET        0
s53        0.01        0.01        0        0        25        OUTLET        0
s54        0.01        0.01        0        0        25        OUTLET        0
s55        0.01        0.01        0        0        25        OUTLET        0
s56        0.01        0.01        0        0        25        OUTLET        0
s57        0.01        0.01        0        0        25        OUTLET        0
s58        0.01        0.01        0        0        25        OUTLET        0
s59        0.01        0.01        0        0        25        OUTLET        0
s60        0.01        0.01        0        0        25        OUTLET        0
s61        0.01        0.01        0        0        25        OUTLET        0
s62        0.01        0.01        0        0        25        OUTLET        0
s63        0.01        0.01        0        0        25        OUTLET        0
s64        0.01        0.01        0        0        25        OUTLET        0
s65        0.01        0.01        0        0        25        OUTLET        0
s66        0.01        0.01        0        0        25        OUTLET        0
s67        0.01        0.01        0        0        25        OUTLET        0
s68        0.01        0.01        0        0        25        OUTLET        0
s69        0.01        0.01        0        0        25        OUTLET        0
s70        0.01        0.01        0        0        25        OUTLET        0
s71        0.01        0.01        0        0        25        OUTLET        0
s72        0.01        0.01        0        0        25        OUTLET        0
s73        0.01        0.01        0        0        25        OUTLET        0
s74        0.01        0.01        0        0        25        OUTLET        0
s75        0.01        0.01        0        0        25        OUTLET        0
s76        0.01        0.01        0        0        25        OUTLET        0
s77        0.01        0.01        0        0        25        OUTLET        0
s78        0.01        0.01        0        0        25        OUTLET        0
s79        0.01        0.01        0        0        25        OUTLET        0
s80        0.01        0.01        0        0        25        OUTLET        0
s81        0.01        0.01        0        0        25        OUTLET        0
s82        0.01        0.01        0        0        25        OUTLET        0
s83        0.01        0.01        0        0        25        OUTLET        0
s84        0.01        0.01        0        0        25        OUTLET        0
s85        0.01        0.01        0        0        25        OUTLET        0
s86        0.01        0.01        0        0        25        OUTLET        0
s87        0.01        0.01        0        0        25        OUTLET        0
s88        0.01        0.01        0        0        25        OUTLET        0
s89        0.01        0.01        0        0        25        OUTLET        0
s90        0.01        0.01        0        0        25        OUTLET        0
s91        0.01        0.01        0        0        25        OUTLET        0
s92        0.01        0.01        0        0        25        OUTLET        0
s93        0.01        0.01        0        0        25        OUTLET        0
s94        0.01        0.01        0        0        25        OUTLET        0
s95        0.01        0.01        0        0        25        OUTLET        0
s96        0.01        0.01        0        0        25        OUTLET        0
s97        0.01        0.01        0        0        25        OUTLET        0
s98        0.01        0.01        0        0        25        OUTLET        0
s99        0.01        0.01        0        0        25        OUTLET        0
s100        0.01        0.01        0        0        25        OUTLET        0
s101        0.01        0.01        0        0        25        OUTLET        0
s102        0.01        0.01        0        0        25        OUTLET        0
s103        0.01        0.01        0        0        25        OUTLET        0
s104        0.01        0.01        0        0        25        OUTLET        0
s105        0.01        0.01        0        0        25        OUTLET        0
s106        0.01        0.01        0        0        25        OUTLET        0
s107        0.01        0.01        0        0        25        OUTLET        0
s108        0.01        0.01        0        0        25        OUTLET        0
s109        0.01        0.01        0        0        25        OUTLET        0
s110        0.01        0.01        0        0        25        OUTLET        0
s111        0.01        0.01        0        0        25        OUTLET        0
s112        0.01        0.01        0        0        25        OUTLET        0

[INFILTRATION]
;;Subcatchment        CurveNum        Conductivity (depreciated)        DryTime        Param4        Param5
s0        95        1.0        1.0        1        1
s1        95        1.0        1.0        1        1
s2        95        1.0        1.0        1        1
s3        95        1.0        1.0        1        1
s4        95        1.0        1.0        1        1
s5        95        1.0        1.0        1        1
s6        95        1.0        1.0        1        1
s7        95        1.0        1.0        1        1
s8        95        1.0        1.0        1        1
s9        95        1.0        1.0        1        1
s10        95        1.0        1.0        1        1
s11        95        1.0        1.0        1        1
s12        95        1.0        1.0        1        1
s13        95        1.0        1.0        1        1
s14        95        1.0        1.0        1        1
s15        95        1.0        1.0        1        1
s16        95        1.0        1.0        1        1
s17        95        1.0        1.0        1        1
s18        95        1.0        1.0        1        1
s19        95        1.0        1.0        1        1
s20        95        1.0        1.0        1        1
s21        95        1.0        1.0        1        1
s22        95        1.0        1.0        1        1
s23        95        1.0        1.0        1        1
s24        95        1.0        1.0        1        1
s25        95        1.0        1.0        1        1
s26        95        1.0        1.0        1        1
s27        95        1.0        1.0        1        1
s28        95        1.0        1.0        1        1
s29        95        1.0        1.0        1        1
s30        95        1.0        1.0        1        1
s31        95        1.0        1.0        1        1
s32        95        1.0        1.0        1        1
s33        95        1.0        1.0        1        1
s34        95        1.0        1.0        1        1
s35        95        1.0        1.0        1        1
s36        95        1.0        1.0        1        1
s37        95        1.0        1.0        1        1
s38        95        1.0        1.0        1        1
s39        95        1.0        1.0        1        1
s40        95        1.0        1.0        1        1
s41        95        1.0        1.0        1        1
s42        95        1.0        1.0        1        1
s43        95        1.0        1.0        1        1
s44        95        1.0        1.0        1        1
s45        95        1.0        1.0        1        1
s46        95        1.0        1.0        1        1
s47        95        1.0        1.0        1        1
s48        95        1.0        1.0        1        1
s49        95        1.0        1.0        1        1
s50        95        1.0        1.0        1        1
s51        95        1.0        1.0        1        1
s52        95        1.0        1.0        1        1
s53        95        1.0        1.0        1        1
s54        95        1.0        1.0        1        1
s55        95        1.0        1.0        1        1
s56        95        1.0        1.0        1        1
s57        95        1.0        1.0        1        1
s58        95        1.0        1.0        1        1
s59        95        1.0        1.0        1        1
s60        95        1.0        1.0        1        1
s61        95        1.0        1.0        1        1
s62        95        1.0        1.0        1        1
s63        95        1.0        1.0        1        1
s64        95        1.0        1.0        1        1
s65        95        1.0        1.0        1        1
s66        95        1.0        1.0        1        1
s67        95        1.0        1.0        1        1
s68        95        1.0        1.0        1        1
s69        95        1.0        1.0        1        1
s70        95        1.0        1.0        1        1
s71        95        1.0        1.0        1        1
s72        95        1.0        1.0        1        1
s73        95        1.0        1.0        1        1
s74        95        1.0        1.0        1        1
s75        95        1.0        1.0        1        1
s76        95        1.0        1.0        1        1
s77        95        1.0        1.0        1        1
s78        95        1.0        1.0        1        1
s79        95        1.0        1.0        1        1
s80        95        1.0        1.0        1        1
s81        95        1.0        1.0        1        1
s82        95        1.0        1.0        1        1
s83        95        1.0        1.0        1        1
s84        95        1.0        1.0        1        1
s85        95        1.0        1.0        1        1
s86        95        1.0        1.0        1        1
s87        95        1.0        1.0        1        1
s88        95        1.0        1.0        1        1
s89        95        1.0        1.0        1        1
s90        95        1.0        1.0        1        1
s91        95        1.0        1.0        1        1
s92        95        1.0        1.0        1        1
s93        95        1.0        1.0        1        1
s94        95        1.0        1.0        1        1
s95        95        1.0        1.0        1        1
s96        95        1.0        1.0        1        1
s97        95        1.0        1.0        1        1
s98        95        1.0        1.0        1        1
s99        95        1.0        1.0        1        1
s100        95        1.0        1.0        1        1
s101        95        1.0        1.0        1        1
s102        95        1.0        1.0        1        1
s103        95        1.0        1.0        1        1
s104        95        1.0        1.0        1        1
s105        95        1.0        1.0        1        1
s106        95        1.0        1.0        1        1
s107        95        1.0        1.0        1        1
s108        95        1.0        1.0        1        1
s109        95        1.0        1.0        1        1
s110        95        1.0        1.0        1        1
s111        95        1.0        1.0        1        1
s112        95        1.0        1.0        1        1

[JUNCTIONS]
;;Name        InvertElev        MaxDepth        InitDepth        SurchargeDepth        PondedArea
node0        299.1669        0        0        0        0
node1        292.6976        0        0        0        0
node2        308.4353        0        0        0        0
node3        278.9102        0        0        0        0
node4        416.0844        0        0        0        0
node5        410.315        0        0        0        0
node6        310.543        0        0        0        0
node7        291.5925        0        0        0        0
node8        287.0771        0        0        0        0
node9        282.7667        0        0        0        0
node10        425.6684        0        0        0        0
node11        346.2368        0        0        0        0
node12        334.5975        0        0        0        0
node13        320.3102        0        0        0        0
node14        276.2404        0        0        0        0
node15        275.5576        0        0        0        0
node16        296.7065        0        0        0        0
node17        268.6412        0        0        0        0
node18        420.9878        0        0        0        0
node19        383.9406        0        0        0        0
node20        299.7857        0        0        0        0